<?xml version="1.0" encoding="UTF-8"?>

<!-- generated on 2025-04-07 08:27:24 by Eclipse SUMO netedit Version v1_22_0+1127-914c8c69f4a
<neteditConfiguration xmlns:xsi="http://www.w3.org/2001/XMLSchema-instance" xsi:noNamespaceSchemaLocation="http://sumo.dlr.de/xsd/neteditConfiguration.xsd">

    <input>
        <sumo-net-file value="/home/geovanny/Documents/Geovanny/Vehiculares/Proyecto1/2025-04-07-07-26-18/osm.net.xml.gz"/>
    </input>

    <output>
        <output-file value="/home/geovanny/Documents/Geovanny/Vehiculares/Proyecto1/2025-04-07-07-26-18/osm.net.xml.gz"/>
        <output.street-names value="true"/>
    </output>

    <processing>
        <geometry.min-radius.fix.railways value="false"/>
        <geometry.max-grade.fix value="false"/>
        <offset.disable-normalization value="true"/>
        <lefthand value="0"/>
    </processing>

    <junctions>
        <no-turnarounds value="true"/>
        <junctions.corner-detail value="5"/>
        <junctions.limit-turn-speed value="5.50"/>
        <rectangular-lane-cut value="0"/>
    </junctions>

    <pedestrian>
        <walkingareas value="0"/>
    </pedestrian>

</neteditConfiguration>
-->

<net version="1.20" junctionCornerDetail="5" limitTurnSpeed="5.50" xmlns:xsi="http://www.w3.org/2001/XMLSchema-instance" xsi:noNamespaceSchemaLocation="http://sumo.dlr.de/xsd/net_file.xsd">

    <location netOffset="-721487.90,320765.78" convBoundary="162.85,136.98,495.42,492.93" origBoundary="-79.007412,-2.900273,-79.001338,-2.895048" projParameter="+proj=utm +zone=17 +ellps=WGS84 +datum=WGS84 +units=m +no_defs"/>

    <type id="highway.footway" priority="1" numLanes="1" speed="2.78" allow="pedestrian" oneway="1" width="2.00"/>
    <type id="highway.pedestrian" priority="1" numLanes="1" speed="2.78" allow="pedestrian" oneway="1" width="2.00"/>
    <type id="highway.residential" priority="3" numLanes="1" speed="13.89" disallow="tram rail_urban rail rail_electric rail_fast ship container cable_car subway aircraft wheelchair scooter drone" oneway="0"/>

    <edge id=":10778577906_0" function="internal">
        <lane id=":10778577906_0_0" index="0" disallow="tram rail_urban rail rail_electric rail_fast ship container cable_car subway aircraft wheelchair scooter drone" speed="8.33" length="0.30" shape="355.93,192.77 355.97,193.07"/>
    </edge>
    <edge id=":12013799485_0" function="internal">
        <lane id=":12013799485_0_0" index="0" disallow="tram rail_urban rail rail_electric rail_fast ship container cable_car subway aircraft wheelchair scooter drone" speed="8.33" length="4.93" shape="277.90,271.78 282.61,270.44"/>
        <lane id=":12013799485_0_1" index="1" disallow="tram rail_urban rail rail_electric rail_fast ship container cable_car subway aircraft wheelchair scooter drone" speed="8.33" length="4.93" shape="278.74,274.86 283.52,273.50"/>
    </edge>
    <edge id=":12013799521_0" function="internal">
        <lane id=":12013799521_0_0" index="0" disallow="tram rail_urban rail rail_electric rail_fast ship container cable_car subway aircraft wheelchair scooter drone" speed="8.33" length="4.99" shape="377.25,305.46 378.21,310.35"/>
        <lane id=":12013799521_0_1" index="1" disallow="tram rail_urban rail rail_electric rail_fast ship container cable_car subway aircraft wheelchair scooter drone" speed="8.33" length="4.99" shape="374.11,306.07 375.07,310.97"/>
    </edge>
    <edge id=":12013799523_0" function="internal">
        <lane id=":12013799523_0_0" index="0" disallow="tram rail_urban rail rail_electric rail_fast ship container cable_car subway aircraft wheelchair scooter drone" speed="8.33" length="5.01" shape="272.25,290.93 271.29,286.02"/>
        <lane id=":12013799523_0_1" index="1" disallow="tram rail_urban rail rail_electric rail_fast ship container cable_car subway aircraft wheelchair scooter drone" speed="8.33" length="5.01" shape="275.39,290.33 274.44,285.41"/>
    </edge>
    <edge id=":12013799524_0" function="internal">
        <lane id=":12013799524_0_0" index="0" disallow="tram rail_urban rail rail_electric rail_fast ship container cable_car subway aircraft wheelchair scooter drone" speed="8.33" length="5.00" shape="280.04,331.30 279.10,326.40"/>
        <lane id=":12013799524_0_1" index="1" disallow="tram rail_urban rail rail_electric rail_fast ship container cable_car subway aircraft wheelchair scooter drone" speed="8.33" length="5.00" shape="283.18,330.70 282.24,325.79"/>
    </edge>
    <edge id=":2496228891_0" function="internal">
        <lane id=":2496228891_0_0" index="0" disallow="tram rail_urban rail rail_electric rail_fast ship container cable_car subway aircraft wheelchair scooter drone" speed="8.33" length="13.40" shape="270.51,281.97 269.97,277.81 269.95,274.69 270.01,271.87 269.71,268.63"/>
    </edge>
    <edge id=":2496228891_1" function="internal">
        <lane id=":2496228891_1_0" index="0" disallow="tram rail_urban rail rail_electric rail_fast ship container cable_car subway aircraft wheelchair scooter drone" speed="6.38" length="8.13" shape="273.65,281.36 273.54,279.16 274.14,277.40 275.45,276.08 277.48,275.21"/>
    </edge>
    <edge id=":2496228891_2" function="internal">
        <lane id=":2496228891_2_0" index="0" disallow="tram rail_urban rail rail_electric rail_fast ship container cable_car subway aircraft wheelchair scooter drone" speed="7.66" length="11.49" shape="264.32,277.48 267.11,276.13 268.94,274.21 269.81,271.70 269.71,268.63"/>
    </edge>
    <edge id=":2496228891_3" function="internal">
        <lane id=":2496228891_3_0" index="0" disallow="tram rail_urban rail rail_electric rail_fast ship container cable_car subway aircraft wheelchair scooter drone" speed="8.33" length="13.42" shape="264.32,277.48 267.34,276.24 269.83,274.89 272.65,273.49 276.63,272.12"/>
        <lane id=":2496228891_3_1" index="1" disallow="tram rail_urban rail rail_electric rail_fast ship container cable_car subway aircraft wheelchair scooter drone" speed="8.33" length="13.42" shape="264.32,277.48 267.47,276.73 270.27,276.43 273.37,276.09 277.48,275.21"/>
    </edge>
    <edge id=":4053431578_0" function="internal">
        <lane id=":4053431578_0_0" index="0" disallow="tram rail_urban rail rail_electric rail_fast ship container cable_car subway aircraft wheelchair scooter drone" speed="8.33" length="5.04" shape="196.35,296.49 201.21,295.17"/>
    </edge>
    <edge id=":620530034_0" function="internal">
        <lane id=":620530034_0_0" index="0" disallow="tram rail_urban rail rail_electric rail_fast ship container cable_car subway aircraft wheelchair scooter drone" speed="8.33" length="5.00" shape="281.16,337.11 280.21,332.20"/>
        <lane id=":620530034_0_1" index="1" disallow="tram rail_urban rail rail_electric rail_fast ship container cable_car subway aircraft wheelchair scooter drone" speed="8.33" length="5.00" shape="284.30,336.50 283.35,331.59"/>
    </edge>
    <edge id=":6486659515_0" function="internal">
        <lane id=":6486659515_0_0" index="0" disallow="tram rail_urban rail rail_electric rail_fast ship container cable_car subway aircraft wheelchair scooter drone" speed="8.33" length="0.30" shape="356.58,196.94 356.62,197.24"/>
    </edge>
    <edge id=":cluster_12013799525_12013799526_2496228894_0" function="internal">
        <lane id=":cluster_12013799525_12013799526_2496228894_0_0" index="0" disallow="tram rail_urban rail rail_electric rail_fast ship container cable_car subway aircraft wheelchair scooter drone" speed="6.75" length="10.17" shape="363.60,241.68 364.42,244.05 365.99,245.53 368.32,246.14 371.40,245.86"/>
    </edge>
    <edge id=":cluster_12013799525_12013799526_2496228894_1" function="internal">
        <lane id=":cluster_12013799525_12013799526_2496228894_1_0" index="0" disallow="tram rail_urban rail rail_electric rail_fast ship container cable_car subway aircraft wheelchair scooter drone" speed="8.33" length="19.37" shape="363.60,241.68 364.45,245.35 365.69,249.32 367.13,254.14 368.57,260.38"/>
        <lane id=":cluster_12013799525_12013799526_2496228894_1_1" index="1" disallow="tram rail_urban rail rail_electric rail_fast ship container cable_car subway aircraft wheelchair scooter drone" speed="8.33" length="19.37" shape="363.60,241.68 365.43,260.98"/>
    </edge>
    <edge id=":cluster_12013799525_12013799526_2496228894_3" function="internal">
        <lane id=":cluster_12013799525_12013799526_2496228894_3_0" index="0" disallow="tram rail_urban rail rail_electric rail_fast ship container cable_car subway aircraft wheelchair scooter drone" speed="9.72" length="17.19" shape="354.60,249.94 371.40,245.86"/>
        <lane id=":cluster_12013799525_12013799526_2496228894_3_1" index="1" disallow="tram rail_urban rail rail_electric rail_fast ship container cable_car subway aircraft wheelchair scooter drone" speed="9.72" length="17.19" shape="355.44,253.03 372.05,248.99"/>
    </edge>
    <edge id=":cluster_12013799525_12013799526_2496228894_5" function="internal">
        <lane id=":cluster_12013799525_12013799526_2496228894_5_0" index="0" disallow="tram rail_urban rail rail_electric rail_fast ship container cable_car subway aircraft wheelchair scooter drone" speed="7.94" length="14.75" shape="355.44,253.03 359.08,252.72 361.96,253.93 364.07,256.69 365.43,260.98"/>
    </edge>
    <edge id=":cluster_12013799527_12013799528_2190601967_0" function="internal">
        <lane id=":cluster_12013799527_12013799528_2190601967_0_0" index="0" disallow="tram rail_urban rail rail_electric rail_fast ship container cable_car subway aircraft wheelchair scooter drone" speed="7.36" length="11.66" shape="392.89,356.24 389.92,357.36 388.00,359.17 387.13,361.67 387.31,364.86"/>
    </edge>
    <edge id=":cluster_12013799527_12013799528_2190601967_1" function="internal">
        <lane id=":cluster_12013799527_12013799528_2190601967_1_0" index="0" disallow="tram rail_urban rail rail_electric rail_fast ship container cable_car subway aircraft wheelchair scooter drone" speed="8.33" length="17.49" shape="392.89,356.24 389.44,357.27 385.97,358.65 381.83,360.23 376.36,361.87"/>
        <lane id=":cluster_12013799527_12013799528_2190601967_1_1" index="1" disallow="tram rail_urban rail rail_electric rail_fast ship container cable_car subway aircraft wheelchair scooter drone" speed="8.33" length="17.49" shape="392.89,356.24 375.57,358.77"/>
    </edge>
    <edge id=":cluster_12013799527_12013799528_2190601967_3" function="internal">
        <lane id=":cluster_12013799527_12013799528_2190601967_3_0" index="0" disallow="tram rail_urban rail rail_electric rail_fast ship container cable_car subway aircraft wheelchair scooter drone" speed="8.33" length="16.29" shape="385.74,348.66 386.51,353.87 386.74,357.91 386.87,361.38 387.31,364.86"/>
    </edge>
    <edge id=":cluster_12013799527_12013799528_2190601967_4" function="internal">
        <lane id=":cluster_12013799527_12013799528_2190601967_4_0" index="0" disallow="tram rail_urban rail rail_electric rail_fast ship container cable_car subway aircraft wheelchair scooter drone" speed="7.92" length="13.29" shape="382.60,349.28 382.70,352.62 381.56,355.32 379.19,357.37 375.57,358.77"/>
    </edge>
    <edge id=":cluster_12013799529_12013799530_473195061_0" function="internal">
        <lane id=":cluster_12013799529_12013799530_473195061_0_0" index="0" disallow="tram rail_urban rail rail_electric rail_fast ship container cable_car subway aircraft wheelchair scooter drone" speed="6.70" length="10.07" shape="292.72,389.11 291.86,386.76 290.28,385.31 287.97,384.76 284.95,385.12"/>
    </edge>
    <edge id=":cluster_12013799529_12013799530_473195061_1" function="internal">
        <lane id=":cluster_12013799529_12013799530_473195061_1_0" index="0" disallow="tram rail_urban rail rail_electric rail_fast ship container cable_car subway aircraft wheelchair scooter drone" speed="8.33" length="17.06" shape="292.72,389.11 291.85,385.65 290.66,382.21 289.33,378.13 288.04,372.73"/>
        <lane id=":cluster_12013799529_12013799530_473195061_1_1" index="1" disallow="tram rail_urban rail rail_electric rail_fast ship container cable_car subway aircraft wheelchair scooter drone" speed="8.33" length="17.06" shape="292.72,389.11 291.18,372.12"/>
    </edge>
    <edge id=":cluster_12013799529_12013799530_473195061_3" function="internal">
        <lane id=":cluster_12013799529_12013799530_473195061_3_0" index="0" disallow="tram rail_urban rail rail_electric rail_fast ship container cable_car subway aircraft wheelchair scooter drone" speed="8.33" length="15.14" shape="299.67,381.48 284.95,385.12"/>
        <lane id=":cluster_12013799529_12013799530_473195061_3_1" index="1" disallow="tram rail_urban rail rail_electric rail_fast ship container cable_car subway aircraft wheelchair scooter drone" speed="8.33" length="15.14" shape="298.88,378.38 284.20,382.01"/>
    </edge>
    <edge id=":cluster_12013799529_12013799530_473195061_5" function="internal">
        <lane id=":cluster_12013799529_12013799530_473195061_5_0" index="0" disallow="tram rail_urban rail rail_electric rail_fast ship container cable_car subway aircraft wheelchair scooter drone" speed="7.09" length="11.42" shape="298.88,378.38 296.08,378.58 293.86,377.60 292.23,375.45 291.18,372.12"/>
    </edge>

    <edge id="1053072563" from="2496228891" to="2496228905" name="Benigno Malo" priority="3" type="highway.residential" spreadType="center" shape="270.86,275.36 268.83,263.45 247.41,163.02">
        <lane id="1053072563_0" index="0" disallow="tram rail_urban rail rail_electric rail_fast ship container cable_car subway aircraft wheelchair scooter drone" speed="8.33" length="107.94" shape="269.71,268.63 268.83,263.45 247.41,163.02">
            <param key="origId" value="1053072563"/>
        </lane>
    </edge>
    <edge id="1053199270" from="12013799494" to="cluster_12013799525_12013799526_2496228894" priority="1" type="highway.footway" spreadType="center" shape="359.37,259.78 357.68,250.77">
        <lane id="1053199270_0" index="0" allow="pedestrian" speed="2.78" length="0.20" width="2.00" shape="359.20,258.85 359.16,258.65">
            <param key="origId" value="1053199270"/>
        </lane>
        <param key="origTo" value="12013799525"/>
    </edge>
    <edge id="1081353722#1" from="12013799516" to="12013799519" priority="1" type="highway.footway" spreadType="center" shape="317.14,312.78 316.89,313.06 316.07,314.38 315.01,317.29 314.80,320.39 314.96,321.32">
        <lane id="1081353722#1_0" index="0" allow="pedestrian" speed="2.78" length="3.98" width="2.00" shape="315.83,315.05 315.01,317.29 314.90,318.88">
            <param key="origId" value="1081353722"/>
        </lane>
    </edge>
    <edge id="1081353722#2" from="12013799519" to="12013799515" priority="1" type="highway.footway" spreadType="center" shape="314.96,321.32 315.14,322.38 315.45,323.35 315.99,324.59 316.95,326.13 319.12,328.33 320.46,329.10">
        <lane id="1081353722#2_0" index="0" allow="pedestrian" speed="2.78" length="4.86" width="2.00" shape="315.63,323.76 315.99,324.59 316.95,326.13 318.46,327.66">
            <param key="origId" value="1081353722"/>
        </lane>
    </edge>
    <edge id="1081353722#3" from="12013799515" to="12013799514" priority="1" type="highway.footway" spreadType="center" shape="320.46,329.10 321.82,329.86 324.84,330.59 327.94,330.46 328.48,330.29">
        <lane id="1081353722#3_0" index="0" allow="pedestrian" speed="2.78" length="3.23" width="2.00" shape="322.73,330.08 324.84,330.59 325.90,330.55">
            <param key="origId" value="1081353722"/>
        </lane>
    </edge>
    <edge id="1081353722#4" from="12013799514" to="12013799517" priority="1" type="highway.footway" spreadType="center" shape="328.48,330.29 330.90,329.49 333.55,327.66 335.44,325.35 335.50,325.22">
        <lane id="1081353722#4_0" index="0" allow="pedestrian" speed="2.78" length="3.84" width="2.00" shape="330.75,329.54 330.90,329.49 333.55,327.66 333.84,327.30">
            <param key="origId" value="1081353722"/>
        </lane>
    </edge>
    <edge id="1081353722#5" from="12013799517" to="12013799488" priority="1" type="highway.footway" spreadType="center" shape="335.50,325.22 336.77,322.18 337.08,318.98 336.80,317.09 336.69,316.65">
        <lane id="1081353722#5_0" index="0" allow="pedestrian" speed="2.78" length="4.02" width="2.00" shape="336.39,323.08 336.77,322.18 337.06,319.15">
            <param key="origId" value="1081353722"/>
        </lane>
    </edge>
    <edge id="1081353722#6" from="12013799488" to="12013799489" priority="1" type="highway.footway" spreadType="center" shape="336.69,316.65 336.20,315.23 335.65,314.14 335.02,313.13 332.62,310.69 331.25,309.82">
        <lane id="1081353722#6_0" index="0" allow="pedestrian" speed="2.78" length="4.12" width="2.00" shape="335.80,314.44 335.65,314.14 335.02,313.13 333.20,311.28">
            <param key="origId" value="1081353722"/>
        </lane>
    </edge>
    <edge id="1081353722#7" from="12013799489" to="12013799518" priority="1" type="highway.footway" spreadType="center" shape="331.25,309.82 329.37,309.02 326.20,308.48 324.11,308.71">
        <lane id="1081353722#7_0" index="0" allow="pedestrian" speed="2.78" length="2.55" width="2.00" shape="329.02,308.96 326.51,308.53">
            <param key="origId" value="1081353722"/>
        </lane>
    </edge>
    <edge id="1081353722#8" from="12013799518" to="12013799516" priority="1" type="highway.footway" spreadType="center" shape="324.11,308.71 323.38,308.77 321.61,309.35 320.37,309.96 317.90,311.87 317.14,312.78">
        <lane id="1081353722#8_0" index="0" allow="pedestrian" speed="2.78" length="3.27" width="2.00" shape="321.59,309.36 320.37,309.96 318.86,311.13">
            <param key="origId" value="1081353722"/>
        </lane>
    </edge>
    <edge id="1175780997" from="10925325516" to="10925325517" priority="1" type="highway.pedestrian" spreadType="center">
        <lane id="1175780997_0" index="0" allow="pedestrian" speed="2.78" length="13.31" width="2.00" shape="233.77,347.44 236.48,360.47">
            <param key="origId" value="1175780997"/>
        </lane>
    </edge>
    <edge id="1296513962#0" from="12013799512" to="12013799504" priority="1" type="highway.footway" spreadType="center" shape="346.89,365.15 346.69,364.41 345.61,360.80 343.44,357.72 340.53,355.55 337.10,354.35 333.48,354.23">
        <lane id="1296513962#0_0" index="0" allow="pedestrian" speed="2.78" length="16.90" width="2.00" shape="346.89,365.15 346.69,364.41 345.61,360.80 343.44,357.72 340.53,355.55 337.10,354.35 335.76,354.31">
            <param key="origId" value="1296513962"/>
        </lane>
    </edge>
    <edge id="1296513962#1" from="12013799504" to="12013799513" priority="1" type="highway.footway" spreadType="center" shape="333.48,354.23 329.98,355.22 326.95,357.21 324.67,360.02 323.34,363.38 323.11,366.98 323.99,370.49 324.15,371.16">
        <lane id="1296513962#1_0" index="0" allow="pedestrian" speed="2.78" length="19.98" width="2.00" shape="331.14,354.89 329.98,355.22 326.95,357.21 324.67,360.02 323.34,363.38 323.11,366.98 323.99,370.49 324.15,371.16">
            <param key="origId" value="1296513962"/>
        </lane>
    </edge>
    <edge id="1296513963" from="12013799504" to="12013799514" priority="1" type="highway.footway" spreadType="center">
        <lane id="1296513963_0" index="0" allow="pedestrian" speed="2.78" length="19.53" width="2.00" shape="332.98,351.85 328.99,332.73">
            <param key="origId" value="1296513963"/>
        </lane>
    </edge>
    <edge id="1296513964" from="3781991258" to="12013799515" priority="1" type="highway.footway" spreadType="center">
        <lane id="1296513964_0" index="0" allow="pedestrian" speed="2.78" length="46.84" width="2.00" shape="296.29,372.11 319.24,331.28">
            <param key="origId" value="1296513964"/>
        </lane>
    </edge>
    <edge id="1296513965" from="12013799494" to="12013799489" priority="1" type="highway.footway" spreadType="center">
        <lane id="1296513965_0" index="0" allow="pedestrian" speed="2.78" length="53.01" width="2.00" shape="358.42,261.47 332.45,307.69">
            <param key="origId" value="1296513965"/>
        </lane>
    </edge>
    <edge id="1296513966" from="12013799495" to="12013799516" priority="1" type="highway.footway" spreadType="center">
        <lane id="1296513966_0" index="0" allow="pedestrian" speed="2.78" length="46.95" width="2.00" shape="276.11,285.13 315.04,311.37">
            <param key="origId" value="1296513966"/>
        </lane>
    </edge>
    <edge id="1296513967" from="12013799517" to="5459440901" priority="1" type="highway.footway" spreadType="center">
        <lane id="1296513967_0" index="0" allow="pedestrian" speed="2.78" length="45.62" width="2.00" shape="337.53,326.59 375.37,352.07">
            <param key="origId" value="1296513967"/>
        </lane>
    </edge>
    <edge id="1296513968" from="12013799497" to="12013799518" priority="1" type="highway.footway" spreadType="center">
        <lane id="1296513968_0" index="0" allow="pedestrian" speed="2.78" length="39.62" width="2.00" shape="315.98,267.33 323.62,306.20">
            <param key="origId" value="1296513968"/>
        </lane>
    </edge>
    <edge id="1296513969" from="12013799524" to="12013799519" priority="1" type="highway.footway" spreadType="center" shape="281.15,328.60 281.89,328.46 314.96,321.32">
        <lane id="1296513969_0" index="0" allow="pedestrian" speed="2.78" length="27.34" width="2.00" shape="285.75,327.63 312.47,321.86">
            <param key="origId" value="1296513969"/>
        </lane>
    </edge>
    <edge id="1296513970" from="12013799488" to="12013799521" priority="1" type="highway.footway" spreadType="center" shape="336.69,316.65 373.54,308.71 376.14,308.14">
        <lane id="1296513970_0" index="0" allow="pedestrian" speed="2.78" length="33.15" width="2.00" shape="339.12,316.13 371.53,309.14">
            <param key="origId" value="1296513970 567060317"/>
        </lane>
    </edge>
    <edge id="1296513971" from="3781991258" to="cluster_12013799529_12013799530_473195061" priority="1" type="highway.footway" spreadType="center" shape="295.34,373.81 290.10,374.96">
        <lane id="1296513971_0" index="0" allow="pedestrian" speed="2.78" length="0.20" width="2.00" shape="294.44,374.01 294.24,374.05">
            <param key="origId" value="1296513971"/>
        </lane>
        <param key="origTo" value="12013799530"/>
    </edge>
    <edge id="1296513972" from="9511769084" to="12013799523" priority="1" type="highway.footway" spreadType="center">
        <lane id="1296513972_0" index="0" allow="pedestrian" speed="2.78" length="0.20" width="2.00" shape="276.22,287.59 276.02,287.60">
            <param key="origId" value="1296513972"/>
        </lane>
    </edge>
    <edge id="304456533" from="cluster_12013799525_12013799526_2496228894" to="12013799494" priority="1" type="highway.footway" spreadType="center" shape="366.50,258.09 359.37,259.78">
        <lane id="304456533_0" index="0" allow="pedestrian" speed="2.78" length="0.20" width="2.00" shape="360.49,259.52 360.29,259.56">
            <param key="origId" value="304456533"/>
        </lane>
        <param key="origFrom" value="12013799526"/>
    </edge>
    <edge id="337277951#1" from="cluster_12013799529_12013799530_473195061" to="620530034" name="Benigno Malo" priority="3" type="highway.residential" spreadType="center" shape="290.10,374.96 282.24,334.27">
        <lane id="337277951#1_0" index="0" disallow="tram rail_urban rail rail_electric rail_fast ship container cable_car subway aircraft wheelchair scooter drone" speed="8.33" length="36.28" shape="288.04,372.73 281.16,337.11">
            <param key="origId" value="337277951"/>
        </lane>
        <lane id="337277951#1_1" index="1" disallow="tram rail_urban rail rail_electric rail_fast ship container cable_car subway aircraft wheelchair scooter drone" speed="8.33" length="36.28" shape="291.18,372.12 284.30,336.50">
            <param key="origId" value="337277951"/>
        </lane>
        <param key="origFrom" value="12013799530"/>
    </edge>
    <edge id="337277951#2" from="620530034" to="12013799524" name="Benigno Malo" priority="3" type="highway.residential" spreadType="center">
        <lane id="337277951#2_0" index="0" disallow="tram rail_urban rail rail_electric rail_fast ship container cable_car subway aircraft wheelchair scooter drone" speed="8.33" length="0.91" shape="280.21,332.20 280.04,331.30">
            <param key="origId" value="337277951"/>
        </lane>
        <lane id="337277951#2_1" index="1" disallow="tram rail_urban rail rail_electric rail_fast ship container cable_car subway aircraft wheelchair scooter drone" speed="8.33" length="0.91" shape="283.35,331.59 283.18,330.70">
            <param key="origId" value="337277951"/>
        </lane>
    </edge>
    <edge id="337277951#3" from="12013799524" to="12013799523" name="Benigno Malo" priority="3" type="highway.residential" spreadType="center">
        <lane id="337277951#3_0" index="0" disallow="tram rail_urban rail rail_electric rail_fast ship container cable_car subway aircraft wheelchair scooter drone" speed="8.33" length="36.12" shape="279.10,326.40 272.25,290.93">
            <param key="origId" value="337277951"/>
        </lane>
        <lane id="337277951#3_1" index="1" disallow="tram rail_urban rail rail_electric rail_fast ship container cable_car subway aircraft wheelchair scooter drone" speed="8.33" length="36.12" shape="282.24,325.79 275.39,290.33">
            <param key="origId" value="337277951"/>
        </lane>
    </edge>
    <edge id="337277951#4" from="12013799523" to="2496228891" name="Benigno Malo" priority="3" type="highway.residential" spreadType="center">
        <lane id="337277951#4_0" index="0" disallow="tram rail_urban rail rail_electric rail_fast ship container cable_car subway aircraft wheelchair scooter drone" speed="8.33" length="4.12" shape="271.29,286.02 270.51,281.97">
            <param key="origId" value="337277951"/>
        </lane>
        <lane id="337277951#4_1" index="1" disallow="tram rail_urban rail rail_electric rail_fast ship container cable_car subway aircraft wheelchair scooter drone" speed="8.33" length="4.12" shape="274.44,285.41 273.65,281.36">
            <param key="origId" value="337277951"/>
        </lane>
    </edge>
    <edge id="337277957#0" from="cluster_12013799529_12013799530_473195061" to="473195063" name="Simón Bolívar" priority="3" type="highway.residential" spreadType="center" shape="291.45,381.92 189.02,406.38 181.82,407.97">
        <lane id="337277957#0_0" index="0" disallow="tram rail_urban rail rail_electric rail_fast ship container cable_car subway aircraft wheelchair scooter drone" speed="8.33" length="105.61" shape="284.95,385.12 189.38,407.94 182.17,409.53">
            <param key="origId" value="337277957"/>
        </lane>
        <lane id="337277957#0_1" index="1" disallow="tram rail_urban rail rail_electric rail_fast ship container cable_car subway aircraft wheelchair scooter drone" speed="8.33" length="105.61" shape="284.20,382.01 188.66,404.82 181.47,406.41">
            <param key="origId" value="337277957"/>
        </lane>
        <param key="origFrom" value="473195061"/>
    </edge>
    <edge id="337277970#1" from="cluster_12013799527_12013799528_2190601967" to="cluster_12013799529_12013799530_473195061" name="Simón Bolívar" priority="3" type="highway.residential" spreadType="center" shape="378.17,359.76 296.68,380.59">
        <lane id="337277970#1_0" index="0" disallow="tram rail_urban rail rail_electric rail_fast ship container cable_car subway aircraft wheelchair scooter drone" speed="8.33" length="79.16" shape="376.36,361.87 299.67,381.48">
            <param key="origId" value="337277970"/>
        </lane>
        <lane id="337277970#1_1" index="1" disallow="tram rail_urban rail rail_electric rail_fast ship container cable_car subway aircraft wheelchair scooter drone" speed="8.33" length="79.16" shape="375.57,358.77 298.88,378.38">
            <param key="origId" value="337277970"/>
        </lane>
        <param key="origFrom" value="12013799527"/>
        <param key="origTo" value="12013799529"/>
    </edge>
    <edge id="337277973#0" from="2496228891" to="12013799485" name="Mariscal Sucre" priority="3" type="highway.residential" spreadType="center">
        <lane id="337277973#0_0" index="0" disallow="tram rail_urban rail rail_electric rail_fast ship container cable_car subway aircraft wheelchair scooter drone" speed="8.33" length="1.31" shape="276.63,272.12 277.90,271.78">
            <param key="origId" value="337277973"/>
        </lane>
        <lane id="337277973#0_1" index="1" disallow="tram rail_urban rail rail_electric rail_fast ship container cable_car subway aircraft wheelchair scooter drone" speed="8.33" length="1.31" shape="277.48,275.21 278.74,274.86">
            <param key="origId" value="337277973"/>
        </lane>
    </edge>
    <edge id="337277973#1" from="12013799485" to="cluster_12013799525_12013799526_2496228894" name="Mariscal Sucre" priority="3" type="highway.residential" spreadType="center" shape="280.95,272.60 292.04,269.29 337.33,256.26 357.68,250.77">
        <lane id="337277973#1_0" index="0" disallow="tram rail_urban rail rail_electric rail_fast ship container cable_car subway aircraft wheelchair scooter drone" speed="8.33" length="74.82" shape="282.61,270.44 291.59,267.75 336.90,254.72 354.60,249.94">
            <param key="origId" value="337277973"/>
        </lane>
        <lane id="337277973#1_1" index="1" disallow="tram rail_urban rail rail_electric rail_fast ship container cable_car subway aircraft wheelchair scooter drone" speed="8.33" length="74.82" shape="283.52,273.50 292.49,270.83 337.76,257.80 355.44,253.03">
            <param key="origId" value="337277973"/>
        </lane>
        <param key="origTo" value="12013799525"/>
    </edge>