<?xml version="1.0" encoding="UTF-8"?>
<routes>
    <vType id="car" accel="1.2" decel="3.0" sigma="0.5" length="4.2" maxSpeed="13.9"/>
    <flow id="flow_1" from="40668087#1" to="542428845#0" type="car" begin="0" end="3600" vehsPerHour="26"/>
    <flow id="flow_2" from="40668087#1" to="337277957#0" type="car" begin="0" end="3600" vehsPerHour="26"/>
    <flow id="flow_3" from="40668087#1" to="1053072563" type="car" begin="0" end="3600" vehsPerHour="26"/>
    <flow id="flow_4" from="40668087#1" to="337277973#1" type="car" begin="0" end="3600" vehsPerHour="26"/>
    <flow id="flow_5" from="40668087#1" to="337277984#0" type="car" begin="0" end="3600" vehsPerHour="26"/>
    <flow id="flow_6" from="40668087#1" to="337277970#1" type="car" begin="0" end="3600" vehsPerHour="26"/>
    <flow id="flow_7" from="40668087#1" to="337277951#1" type="car" begin="0" end="3600" vehsPerHour="26"/>
    <flow id="flow_8" from="49217102" to="337277951#3" type="car" begin="0" end="3600" vehsPerHour="26"/>
    <flow id="flow_9" from="49217102" to="1053072563" type="car" begin="0" end="3600" vehsPerHour="26"/>
    <flow id="flow_10" from="49217102" to="337277973#1" type="car" begin="0" end="3600" vehsPerHour="26"/>
    <flow id="flow_11" from="49217102" to="337277984#0" type="car" begin="0" end="3600" vehsPerHour="26"/>
    <flow id="flow_12" from="49217102" to="542428845#0" type="car" begin="0" end="3600" vehsPerHour="26"/>
    <flow id="flow_13" from="42143912#5" to="337277957#0" type="car" begin="0" end="3600" vehsPerHour="26"/>
    <flow id="flow_14" from="42143912#5" to="542428845#0" type="car" begin="0" end="3600" vehsPerHour="26"/>
    <flow id="flow_15" from="42143912#5" to="1053072563" type="car" begin="0" end="3600" vehsPerHour="26"/>
    <flow id="flow_16" from="42143912#5" to="337277973#1" type="car" begin="0" end="3600" vehsPerHour="26"/>
    <flow id="flow_17" from="567060342#0" to="337277984#0" type="car" begin="0" end="3600" vehsPerHour="26"/>
    <flow id="flow_18" from="567060342#0" to="542428845#0" type="car" begin="0" end="3600" vehsPerHour="26"/>
    <flow id="flow_19" from="567060342#0" to="337277957#0" type="car" begin="0" end="3600" vehsPerHour="26"/>
    <flow id="flow_20" from="40668087#1" to="542428845#0" type="car" begin="3600" end="7200" vehsPerHour="34"/>
    <flow id="flow_21" from="40668087#1" to="337277957#0" type="car" begin="3600" end="7200" vehsPerHour="34"/>
    <flow id="flow_22" from="40668087#1" to="1053072563" type="car" begin="3600" end="7200" vehsPerHour="34"/>
    <flow id="flow_23" from="40668087#1" to="337277973#1" type="car" begin="3600" end="7200" vehsPerHour="34"/>
    <flow id="flow_24" from="40668087#1" to="337277984#0" type="car" begin="3600" end="7200" vehsPerHour="34"/>
    <flow id="flow_25" from="40668087#1" to="337277970#1" type="car" begin="3600" end="7200" vehsPerHour="34"/>
    <flow id="flow_26" from="40668087#1" to="337277951#1" type="car" begin="3600" end="7200" vehsPerHour="34"/>
    <flow id="flow_27" from="49217102" to="337277951#3" type="car" begin="3600" end="7200" vehsPerHour="34"/>
    <flow id="flow_28" from="49217102" to="1053072563" type="car" begin="3600" end="7200" vehsPerHour="34"/>
    <flow id="flow_29" from="49217102" to="337277973#1" type="car" begin="3600" end="7200" vehsPerHour="34"/>
    <flow id="flow_30" from="49217102" to="337277984#0" type="car" begin="3600" end="7200" vehsPerHour="34"/>
    <flow id="flow_31" from="49217102" to="542428845#0" type="car" begin="3600" end="7200" vehsPerHour="34"/>
    <flow id="flow_32" from="42143912#5" to="337277957#0" type="car" begin="3600" end="7200" vehsPerHour="34"/>
    <flow id="flow_33" from="42143912#5" to="542428845#0" type="car" begin="3600" end="7200" vehsPerHour="34"/>
    <flow id="flow_34" from="42143912#5" to="1053072563" type="car" begin="3600" end="7200" vehsPerHour="34"/>
    <flow id="flow_35" from="42143912#5" to="337277973#1" type="car" begin="3600" end="7200" vehsPerHour="34"/>
    <flow id="flow_36" from="567060342#0" to="337277984#0" type="car" begin="3600" end="7200" vehsPerHour="34"/>
    <flow id="flow_37" from="567060342#0" to="542428845#0" type="car" begin="3600" end="7200" vehsPerHour="34"/>
    <flow id="flow_38" from="567060342#0" to="337277957#0" type="car" begin="3600" end="7200" vehsPerHour="34"/>
    <flow id="flow_39" from="40668087#1" to="542428845#0" type="car" begin="7200" end="10800" vehsPerHour="39"/>
    <flow id="flow_40" from="40668087#1" to="337277957#0" type="car" begin="7200" end="10800" vehsPerHour="39"/>
    <flow id="flow_41" from="40668087#1" to="1053072563" type="car" begin="7200" end="10800" vehsPerHour="39"/>
    <flow id="flow_42" from="40668087#1" to="337277973#1" type="car" begin="7200" end="10800" vehsPerHour="39"/>
    <flow id="flow_43" from="40668087#1" to="337277984#0" type="car" begin="7200" end="10800" vehsPerHour="39"/>
    <flow id="flow_44" from="40668087#1" to="337277970#1" type="car" begin="7200" end="10800" vehsPerHour="39"/>
    <flow id="flow_45" from="40668087#1" to="337277951#1" type="car" begin="7200" end="10800" vehsPerHour="39"/>
    <flow id="flow_46" from="49217102" to="337277951#3" type="car" begin="7200" end="10800" vehsPerHour="39"/>
    <flow id="flow_47" from="49217102" to="1053072563" type="car" begin="7200" end="10800" vehsPerHour="39"/>
    <flow id="flow_48" from="49217102" to="337277973#1" type="car" begin="7200" end="10800" vehsPerHour="39"/>
    <flow id="flow_49" from="49217102" to="337277984#0" type="car" begin="7200" end="10800" vehsPerHour="39"/>
    <flow id="flow_50" from="49217102" to="542428845#0" type="car" begin="7200" end="10800" vehsPerHour="39"/>
    <flow id="flow_51" from="42143912#5" to="337277957#0" type="car" begin="7200" end="10800" vehsPerHour="39"/>
    <flow id="flow_52" from="42143912#5" to="542428845#0" type="car" begin="7200" end="10800" vehsPerHour="39"/>
    <flow id="flow_53" from="42143912#5" to="1053072563" type="car" begin="7200" end="10800" vehsPerHour="39"/>
    <flow id="flow_54" from="42143912#5" to="337277973#1" type="car" begin="7200" end="10800" vehsPerHour="39"/>
    <flow id="flow_55" from="567060342#0" to="337277984#0" type="car" begin="7200" end="10800" vehsPerHour="39"/>
    <flow id="flow_56" from="567060342#0" to="542428845#0" type="car" begin="7200" end="10800" vehsPerHour="39"/>
    <flow id="flow_57" from="567060342#0" to="337277957#0" type="car" begin="7200" end="10800" vehsPerHour="39"/>
    <flow id="flow_58" from="40668087#1" to="542428845#0" type="car" begin="10800" end="14400" vehsPerHour="31"/>
    <flow id="flow_59" from="40668087#1" to="337277957#0" type="car" begin="10800" end="14400" vehsPerHour="31"/>
    <flow id="flow_60" from="40668087#1" to="1053072563" type="car" begin="10800" end="14400" vehsPerHour="31"/>
    <flow id="flow_61" from="40668087#1" to="337277973#1" type="car" begin="10800" end="14400" vehsPerHour="31"/>
    <flow id="flow_62" from="40668087#1" to="337277984#0" type="car" begin="10800" end="14400" vehsPerHour="31"/>
    <flow id="flow_63" from="40668087#1" to="337277970#1" type="car" begin="10800" end="14400" vehsPerHour="31"/>
    <flow id="flow_64" from="40668087#1" to="337277951#1" type="car" begin="10800" end="14400" vehsPerHour="31"/>
    <flow id="flow_65" from="49217102" to="337277951#3" type="car" begin="10800" end="14400" vehsPerHour="31"/>
    <flow id="flow_66" from="49217102" to="1053072563" type="car" begin="10800" end="14400" vehsPerHour="31"/>
    <flow id="flow_67" from="49217102" to="337277973#1" type="car" begin="10800" end="14400" vehsPerHour="31"/>
    <flow id="flow_68" from="49217102" to="337277984#0" type="car" begin="10800" end="14400" vehsPerHour="31"/>
    <flow id="flow_69" from="49217102" to="542428845#0" type="car" begin="10800" end="14400" vehsPerHour="31"/>
    <flow id="flow_70" from="42143912#5" to="337277957#0" type="car" begin="10800" end="14400" vehsPerHour="31"/>
    <flow id="flow_71" from="42143912#5" to="542428845#0" type="car" begin="10800" end="14400" vehsPerHour="31"/>
    <flow id="flow_72" from="42143912#5" to="1053072563" type="car" begin="10800" end="14400" vehsPerHour="31"/>
    <flow id="flow_73" from="42143912#5" to="337277973#1" type="car" begin="10800" end="14400" vehsPerHour="31"/>
    <flow id="flow_74" from="567060342#0" to="337277984#0" type="car" begin="10800" end="14400" vehsPerHour="31"/>
    <flow id="flow_75" from="567060342#0" to="542428845#0" type="car" begin="10800" end="14400" vehsPerHour="31"/>
    <flow id="flow_76" from="567060342#0" to="337277957#0" type="car" begin="10800" end="14400" vehsPerHour="31"/>
</routes>
